4
Coordinates from ORCA-job test
  N   0.00000000000000      0.00000000000000      0.10882700000000
  H   0.00000000000000      0.94745500000000     -0.25393100000000
  H   0.82052000000000     -0.47372700000000     -0.25393100000000
  H   -0.82052000000000     -0.47372700000000     -0.25393100000000
